
 OpenBabel12042016303D

180188  0  0  0  0  0  0  0  0999 V2000
   -2.0808    2.9412    3.3171 C   0  0  0  0  0  0  0  0  0  0  0  0
   -1.1188    2.0639    3.7460 C   0  0  0  0  0  0  0  0  0  0  0  0
   -0.2880    1.5613    2.7333 C   0  0  0  0  0  0  0  0  0  0  0  0
   -2.0337    3.1607    1.9333 C   0  0  0  0  0  0  0  0  0  0  0  0
   -0.7724    2.2351    1.1801 S   0  0  0  0  0  0  0  0  0  0  0  0
    0.7761    0.7047    2.9282 C   0  0  0  0  0  0  0  0  0  0  0  0
    1.6389    0.1805    1.9830 C   0  0  0  0  0  0  0  0  0  0  0  0
    0.9392    0.4372    3.9613 H   0  0  0  0  0  0  0  0  0  0  0  0
    2.7575   -0.6715    2.1655 C   0  0  0  0  0  0  0  0  0  0  0  0
   -0.9876    1.7679    4.7711 H   0  0  0  0  0  0  0  0  0  0  0  0
   -2.8009    3.4188    3.9537 H   0  0  0  0  0  0  0  0  0  0  0  0
    3.3742   -1.0359    1.0574 N   0  0  0  0  0  0  0  0  0  0  0  0
    2.8358   -0.5255   -0.0425 C   0  0  0  0  0  0  0  0  0  0  0  0
    1.4511    0.5142    0.2661 S   0  0  0  0  0  0  0  0  0  0  0  0
    3.2897   -0.7732   -1.3334 C   0  0  0  0  0  0  0  0  0  0  0  0
    2.6993   -0.1436   -2.4304 C   0  0  0  0  0  0  0  0  0  0  0  0
    2.2120    0.3963   -3.3234 N   0  0  0  0  0  0  0  0  0  0  0  0
    4.3272   -1.6713   -1.5625 C   0  0  0  0  0  0  0  0  0  0  0  0
    5.1792   -2.4235   -1.7599 N   0  0  0  0  0  0  0  0  0  0  0  0
   -2.7968    3.9583    1.2090 N   0  0  0  0  0  0  0  0  0  0  0  0
   -3.7648    4.8909    1.7486 C   0  0  0  0  0  0  0  0  0  0  0  0
   -2.6880    4.0363   -0.2288 C   0  0  0  0  0  0  0  0  0  0  0  0
    3.3031   -1.1457    3.4916 C   0  0  0  0  0  0  0  0  0  0  0  0
   -4.0220    5.8373    0.5798 C   0  0  0  0  0  0  0  0  0  0  0  0
   -3.3481    5.4000    2.6200 H   0  0  0  0  0  0  0  0  0  0  0  0
   -4.6746    4.3473    2.0283 H   0  0  0  0  0  0  0  0  0  0  0  0
   -3.8615    4.9222   -0.6325 C   0  0  0  0  0  0  0  0  0  0  0  0
   -3.2632    6.6205    0.5673 H   0  0  0  0  0  0  0  0  0  0  0  0
   -5.0052    6.2979    0.6322 H   0  0  0  0  0  0  0  0  0  0  0  0
   -3.6747    5.4677   -1.5551 H   0  0  0  0  0  0  0  0  0  0  0  0
   -4.7544    4.3083   -0.7533 H   0  0  0  0  0  0  0  0  0  0  0  0
   -2.7406    3.0325   -0.6635 H   0  0  0  0  0  0  0  0  0  0  0  0
   -1.7202    4.4825   -0.4921 H   0  0  0  0  0  0  0  0  0  0  0  0
    3.7226    0.0689    4.3334 C   0  0  0  0  0  0  0  0  0  0  0  0
    4.4434    0.6706    3.7832 H   0  0  0  0  0  0  0  0  0  0  0  0
    4.1921   -0.2730    5.2531 H   0  0  0  0  0  0  0  0  0  0  0  0
    2.8890    0.7131    4.5916 H   0  0  0  0  0  0  0  0  0  0  0  0
    4.5505   -2.0092    3.2624 C   0  0  0  0  0  0  0  0  0  0  0  0
    5.3640   -1.4101    2.8662 H   0  0  0  0  0  0  0  0  0  0  0  0
    4.3469   -2.8105    2.5586 H   0  0  0  0  0  0  0  0  0  0  0  0
    4.8698   -2.4444    4.2067 H   0  0  0  0  0  0  0  0  0  0  0  0
    2.2692   -2.0069    4.2316 C   0  0  0  0  0  0  0  0  0  0  0  0
    1.3171   -1.5028    4.3584 H   0  0  0  0  0  0  0  0  0  0  0  0
    2.6531   -2.2655    5.2160 H   0  0  0  0  0  0  0  0  0  0  0  0
    2.0890   -2.9297    3.6830 H   0  0  0  0  0  0  0  0  0  0  0  0
   -0.8846    2.2165   -3.2915 H   0  0  0  0  0  0  0  0  0  0  0  0
   -5.4847    2.1233    1.1265 N   0  0  0  0  0  0  0  0  0  0  0  0
   -3.2602    2.8948   -2.9174 H   0  0  0  0  0  0  0  0  0  0  0  0
   -1.2686    1.5707   -4.0779 C   0  0  0  0  0  0  0  0  0  0  0  0
   -4.6217    1.3584    1.1004 C   0  0  0  0  0  0  0  0  0  0  0  0
   -1.4172    2.1693   -4.9740 H   0  0  0  0  0  0  0  0  0  0  0  0
   -0.5098    0.8247   -4.2865 H   0  0  0  0  0  0  0  0  0  0  0  0
   -3.5884    0.4269    1.0610 C   0  0  0  0  0  0  0  0  0  0  0  0
   -3.2168   -0.2127    2.2443 C   0  0  0  0  0  0  0  0  0  0  0  0
   -3.6323    2.0961   -3.5523 C   0  0  0  0  0  0  0  0  0  0  0  0
   -2.8956   -0.7466    3.2129 N   0  0  0  0  0  0  0  0  0  0  0  0
   -2.9414    0.1398   -0.1362 C   0  0  0  0  0  0  0  0  0  0  0  0
   -3.1994    0.7404   -1.2908 N   0  0  0  0  0  0  0  0  0  0  0  0
   -3.8195    2.5009   -4.5444 H   0  0  0  0  0  0  0  0  0  0  0  0
   -2.6082    0.9574   -3.6443 C   0  0  0  0  0  0  0  0  0  0  0  0
   -2.4544    0.3066   -2.2900 C   0  0  0  0  0  0  0  0  0  0  0  0
   -1.6681   -1.0696   -0.2396 S   0  0  0  0  0  0  0  0  0  0  0  0
   -1.5338   -0.7179   -1.9581 C   0  0  0  0  0  0  0  0  0  0  0  0
    2.5547   -3.6221    1.4315 H   0  0  0  0  0  0  0  0  0  0  0  0
   -0.6400   -1.3836   -2.7772 C   0  0  0  0  0  0  0  0  0  0  0  0
    5.0926   -4.8145    0.9145 H   0  0  0  0  0  0  0  0  0  0  0  0
   -4.5693    1.7428   -3.1345 H   0  0  0  0  0  0  0  0  0  0  0  0
    0.6461   -2.8393   -0.7755 S   0  0  0  0  0  0  0  0  0  0  0  0
    0.3196   -2.3084   -2.4220 C   0  0  0  0  0  0  0  0  0  0  0  0
   -0.6628   -1.1585   -3.8326 H   0  0  0  0  0  0  0  0  0  0  0  0
    1.2202   -2.9231   -3.3053 C   0  0  0  0  0  0  0  0  0  0  0  0
    2.3327   -4.5843    0.9526 C   0  0  0  0  0  0  0  0  0  0  0  0
    1.9670   -3.8265   -1.3175 C   0  0  0  0  0  0  0  0  0  0  0  0
    4.5244   -4.7374   -1.4133 H   0  0  0  0  0  0  0  0  0  0  0  0
   -3.1144   -0.0594   -4.6770 C   0  0  0  0  0  0  0  0  0  0  0  0
    4.4442   -5.6303    0.5909 C   0  0  0  0  0  0  0  0  0  0  0  0
    2.1318   -3.7546   -2.7084 C   0  0  0  0  0  0  0  0  0  0  0  0
    2.6846   -4.5095   -0.4457 N   0  0  0  0  0  0  0  0  0  0  0  0
    1.1771   -2.7361   -4.3631 H   0  0  0  0  0  0  0  0  0  0  0  0
    3.4418   -5.5961    2.5424 H   0  0  0  0  0  0  0  0  0  0  0  0
   -3.1951    0.4217   -5.6494 H   0  0  0  0  0  0  0  0  0  0  0  0
    3.8462   -5.3086   -0.7752 C   0  0  0  0  0  0  0  0  0  0  0  0
    3.2090   -5.7127    1.4861 C   0  0  0  0  0  0  0  0  0  0  0  0
    2.8918   -4.3054   -3.2290 H   0  0  0  0  0  0  0  0  0  0  0  0
   -2.4547   -0.9154   -4.7731 H   0  0  0  0  0  0  0  0  0  0  0  0
    1.2614   -4.7869    1.0554 H   0  0  0  0  0  0  0  0  0  0  0  0
    5.0173   -6.5537    0.5808 H   0  0  0  0  0  0  0  0  0  0  0  0
   -4.0982   -0.4286   -4.3937 H   0  0  0  0  0  0  0  0  0  0  0  0
    3.5219   -6.2188   -1.2921 H   0  0  0  0  0  0  0  0  0  0  0  0
    2.7050   -6.6670    1.3334 H   0  0  0  0  0  0  0  0  0  0  0  0
    2.6068    7.3637   -1.8149 H   0  0  0  0  0  0  0  0  0  0  0  0
   -1.1365    6.0977    3.2768 N   0  0  0  0  0  0  0  0  0  0  0  0
    0.3512    7.6660   -0.7533 H   0  0  0  0  0  0  0  0  0  0  0  0
    2.1227    6.7533   -2.5744 C   0  0  0  0  0  0  0  0  0  0  0  0
   -0.1892    5.4986    3.0156 C   0  0  0  0  0  0  0  0  0  0  0  0
    1.7401    7.4129   -3.3502 H   0  0  0  0  0  0  0  0  0  0  0  0
    2.8721    6.1060   -3.0180 H   0  0  0  0  0  0  0  0  0  0  0  0
    0.9380    4.7345    2.6974 C   0  0  0  0  0  0  0  0  0  0  0  0
    1.5245    3.9626    3.7047 C   0  0  0  0  0  0  0  0  0  0  0  0
   -0.0863    6.9847   -1.4776 C   0  0  0  0  0  0  0  0  0  0  0  0
    2.0017    3.3062    4.5205 N   0  0  0  0  0  0  0  0  0  0  0  0
    1.3996    4.6871    1.3936 C   0  0  0  0  0  0  0  0  0  0  0  0
    0.8682    5.3775    0.3910 N   0  0  0  0  0  0  0  0  0  0  0  0
   -0.4552    7.5592   -2.3244 H   0  0  0  0  0  0  0  0  0  0  0  0
    0.9580    5.9677   -1.9546 C   0  0  0  0  0  0  0  0  0  0  0  0
    1.4425    5.1683   -0.7678 C   0  0  0  0  0  0  0  0  0  0  0  0
    2.7567    3.6708    0.8986 S   0  0  0  0  0  0  0  0  0  0  0  0
    2.5061    4.2169   -0.7579 C   0  0  0  0  0  0  0  0  0  0  0  0
    7.1811    0.6343    1.3030 H   0  0  0  0  0  0  0  0  0  0  0  0
    3.2364    3.7221   -1.8162 C   0  0  0  0  0  0  0  0  0  0  0  0
    9.3658   -0.6716    0.0374 H   0  0  0  0  0  0  0  0  0  0  0  0
   -0.9239    6.4867   -0.9994 H   0  0  0  0  0  0  0  0  0  0  0  0
    4.9168    2.0310   -0.3517 S   0  0  0  0  0  0  0  0  0  0  0  0
    4.2675    2.7930   -1.7995 C   0  0  0  0  0  0  0  0  0  0  0  0
    2.9793    4.0695   -2.8064 H   0  0  0  0  0  0  0  0  0  0  0  0
    4.9330    2.3059   -2.9279 C   0  0  0  0  0  0  0  0  0  0  0  0
    6.7278   -0.1486    0.6819 C   0  0  0  0  0  0  0  0  0  0  0  0
    6.0141    1.0744   -1.3011 C   0  0  0  0  0  0  0  0  0  0  0  0
    8.4088   -0.0260   -2.0859 H   0  0  0  0  0  0  0  0  0  0  0  0
    0.3044    5.0457   -2.9925 C   0  0  0  0  0  0  0  0  0  0  0  0
    8.5557   -1.3143   -0.3104 C   0  0  0  0  0  0  0  0  0  0  0  0
    5.9014    1.3636   -2.6633 C   0  0  0  0  0  0  0  0  0  0  0  0
    6.8363    0.2108   -0.7152 N   0  0  0  0  0  0  0  0  0  0  0  0
    4.6774    2.6373   -3.9186 H   0  0  0  0  0  0  0  0  0  0  0  0
    7.9177   -1.6315    1.7643 H   0  0  0  0  0  0  0  0  0  0  0  0
   -0.0227    5.6334   -3.8475 H   0  0  0  0  0  0  0  0  0  0  0  0
    7.7779   -0.6295   -1.4297 C   0  0  0  0  0  0  0  0  0  0  0  0
    7.4941   -1.4648    0.7768 C   0  0  0  0  0  0  0  0  0  0  0  0
    6.4884    0.8699   -3.4148 H   0  0  0  0  0  0  0  0  0  0  0  0
    0.9822    4.2739   -3.3445 H   0  0  0  0  0  0  0  0  0  0  0  0
    5.6746   -0.2514    0.9606 H   0  0  0  0  0  0  0  0  0  0  0  0
    8.9724   -2.2673   -0.6258 H   0  0  0  0  0  0  0  0  0  0  0  0
   -0.5660    4.5558   -2.5609 H   0  0  0  0  0  0  0  0  0  0  0  0
    7.2301   -1.3677   -2.0278 H   0  0  0  0  0  0  0  0  0  0  0  0
    6.8274   -2.2896    0.5259 H   0  0  0  0  0  0  0  0  0  0  0  0
   -1.4336   -4.9591   -3.9205 N   0  0  0  0  0  0  0  0  0  0  0  0
   -1.1563   -5.3245   -2.8657 C   0  0  0  0  0  0  0  0  0  0  0  0
   -0.7972   -5.7300   -1.5755 C   0  0  0  0  0  0  0  0  0  0  0  0
    0.3473   -6.5216   -1.4433 C   0  0  0  0  0  0  0  0  0  0  0  0
    1.3044   -7.1551   -1.3574 N   0  0  0  0  0  0  0  0  0  0  0  0
   -2.9439   -4.2876   -0.5995 S   0  0  0  0  0  0  0  0  0  0  0  0
   -1.4999   -5.2958   -0.4657 C   0  0  0  0  0  0  0  0  0  0  0  0
   -1.1589   -5.5626    0.7911 N   0  0  0  0  0  0  0  0  0  0  0  0
   -1.9553   -5.0308    1.6858 C   0  0  0  0  0  0  0  0  0  0  0  0
   -0.4827   -6.2481    3.2658 C   0  0  0  0  0  0  0  0  0  0  0  0
   -6.8946    0.8813   -3.9891 H   0  0  0  0  0  0  0  0  0  0  0  0
   -7.3775    0.4975   -3.0935 C   0  0  0  0  0  0  0  0  0  0  0  0
   -7.6092    1.5752   -2.0355 C   0  0  0  0  0  0  0  0  0  0  0  0
   -6.7309    2.2161   -1.9548 H   0  0  0  0  0  0  0  0  0  0  0  0
   -8.4782    2.1939   -2.2454 H   0  0  0  0  0  0  0  0  0  0  0  0
   -5.4413   -0.2551   -2.4164 H   0  0  0  0  0  0  0  0  0  0  0  0
   -6.5069   -0.5118   -2.3530 C   0  0  0  0  0  0  0  0  0  0  0  0
   -7.7681    0.7680   -0.7488 C   0  0  0  0  0  0  0  0  0  0  0  0
   -6.9435   -0.4032   -0.9781 N   0  0  0  0  0  0  0  0  0  0  0  0
   -7.4150    1.3177    0.1270 H   0  0  0  0  0  0  0  0  0  0  0  0
   -6.3917   -1.1288   -0.0078 C   0  0  0  0  0  0  0  0  0  0  0  0
   -6.6592   -1.0804    1.3607 C   0  0  0  0  0  0  0  0  0  0  0  0
   -7.3948   -0.4272    1.7909 H   0  0  0  0  0  0  0  0  0  0  0  0
   -5.8574   -1.9341    2.0868 C   0  0  0  0  0  0  0  0  0  0  0  0
   -5.8903   -2.0194    3.1585 H   0  0  0  0  0  0  0  0  0  0  0  0
   -6.6320   -1.5376   -2.7119 H   0  0  0  0  0  0  0  0  0  0  0  0
   -8.3253    0.0383   -3.3766 H   0  0  0  0  0  0  0  0  0  0  0  0
   -8.8093    0.4630   -0.5914 H   0  0  0  0  0  0  0  0  0  0  0  0
   -2.8574   -5.8967    3.8607 C   0  0  0  0  0  0  0  0  0  0  0  0
   -2.5647   -6.1860    4.8676 H   0  0  0  0  0  0  0  0  0  0  0  0
   -0.2738   -6.4437    4.3151 H   0  0  0  0  0  0  0  0  0  0  0  0
   -0.9925   -4.1052    4.8414 H   0  0  0  0  0  0  0  0  0  0  0  0
   -1.2471   -3.9365    3.7975 C   0  0  0  0  0  0  0  0  0  0  0  0
   -3.1822   -6.7890    3.3294 H   0  0  0  0  0  0  0  0  0  0  0  0
   -1.6544   -5.2657    3.1458 C   0  0  0  0  0  0  0  0  0  0  0  0
   -0.7209   -7.1869    2.7735 H   0  0  0  0  0  0  0  0  0  0  0  0
    0.4119   -5.8432    2.8042 H   0  0  0  0  0  0  0  0  0  0  0  0
   -3.7021   -5.2209    3.9396 H   0  0  0  0  0  0  0  0  0  0  0  0
   -2.0321   -3.1880    3.7481 H   0  0  0  0  0  0  0  0  0  0  0  0
   -3.0266   -4.2481    1.1591 C   0  0  0  0  0  0  0  0  0  0  0  0
   -3.9788   -3.5219    1.8373 C   0  0  0  0  0  0  0  0  0  0  0  0
   -4.9566   -2.6804    1.3230 C   0  0  0  0  0  0  0  0  0  0  0  0
   -3.9603   -3.5558    2.9163 H   0  0  0  0  0  0  0  0  0  0  0  0
   -5.1669   -2.3024   -0.3827 S   0  0  0  0  0  0  0  0  0  0  0  0
   -0.3744   -3.5300    3.2906 H   0  0  0  0  0  0  0  0  0  0  0  0
  1  2  1  0  0  0  0
  1 11  1  0  0  0  0
  2 10  1  0  0  0  0
  3  6  1  0  0  0  0
  3  2  2  0  0  0  0
  4  1  2  0  0  0  0
  5  4  1  0  0  0  0
  5  3  1  0  0  0  0
  6  8  1  0  0  0  0
  7  9  2  0  0  0  0
  7  6  1  0  0  0  0
  9 23  1  0  0  0  0
 12  9  1  0  0  0  0
 13 14  1  0  0  0  0
 13 12  2  0  0  0  0
 14  7  1  0  0  0  0
 15 13  1  0  0  0  0
 16 15  1  0  0  0  0
 17 16  3  0  0  0  0
 18 15  1  0  0  0  0
 19 18  3  0  0  0  0
 20 21  1  0  0  0  0
 20  4  1  0  0  0  0
 21 26  1  0  0  0  0
 21 25  1  0  0  0  0
 22 20  1  0  0  0  0
 23 42  1  0  0  0  0
 23 34  1  0  0  0  0
 24 29  1  0  0  0  0
 24 21  1  0  0  0  0
 27 22  1  0  0  0  0
 27 24  1  0  0  0  0
 28 24  1  0  0  0  0
 30 27  1  0  0  0  0
 31 27  1  0  0  0  0
 32 22  1  0  0  0  0
 33 22  1  0  0  0  0
 34 37  1  0  0  0  0
 34 36  1  0  0  0  0
 35 34  1  0  0  0  0
 38 23  1  0  0  0  0
 38 41  1  0  0  0  0
 39 38  1  0  0  0  0
 40 38  1  0  0  0  0
 42 43  1  0  0  0  0
 42 44  1  0  0  0  0
 45 42  1  0  0  0  0
 49 60  1  0  0  0  0
 49 46  1  0  0  0  0
 50 47  3  0  0  0  0
 51 49  1  0  0  0  0
 52 49  1  0  0  0  0
 53 50  1  0  0  0  0
 53 54  1  0  0  0  0
 54 56  3  0  0  0  0
 55 67  1  0  0  0  0
 55 48  1  0  0  0  0
 57 53  1  0  0  0  0
 58 57  2  0  0  0  0
 59 55  1  0  0  0  0
 60 55  1  0  0  0  0
 60 61  1  0  0  0  0
 61 63  2  0  0  0  0
 61 58  1  0  0  0  0
 62 57  1  0  0  0  0
 63 62  1  0  0  0  0
 65 69  1  0  0  0  0
 65 63  1  0  0  0  0
 69 68  1  0  0  0  0
 70 65  1  0  0  0  0
 71 77  1  0  0  0  0
 71 69  2  0  0  0  0
 72 86  1  0  0  0  0
 72 64  1  0  0  0  0
 72 83  1  0  0  0  0
 73 68  1  0  0  0  0
 73 78  1  0  0  0  0
 74 82  1  0  0  0  0
 75 88  1  0  0  0  0
 75 60  1  0  0  0  0
 76 66  1  0  0  0  0
 76 83  1  0  0  0  0
 77 73  2  0  0  0  0
 78 72  1  0  0  0  0
 79 71  1  0  0  0  0
 81 75  1  0  0  0  0
 82 78  1  0  0  0  0
 82 76  1  0  0  0  0
 83 80  1  0  0  0  0
 84 77  1  0  0  0  0
 85 75  1  0  0  0  0
 87 76  1  0  0  0  0
 89 82  1  0  0  0  0
 90 83  1  0  0  0  0
 94105  1  0  0  0  0
 94 91  1  0  0  0  0
 95 92  3  0  0  0  0
 96 94  1  0  0  0  0
 97 94  1  0  0  0  0
 98 95  1  0  0  0  0
 98 99  1  0  0  0  0
 99101  3  0  0  0  0
100112  1  0  0  0  0
100 93  1  0  0  0  0
102 98  1  0  0  0  0
103102  2  0  0  0  0
104100  1  0  0  0  0
105100  1  0  0  0  0
105106  1  0  0  0  0
106108  2  0  0  0  0
106103  1  0  0  0  0
107102  1  0  0  0  0
108107  1  0  0  0  0
110114  1  0  0  0  0
110108  1  0  0  0  0
114113  1  0  0  0  0
115110  1  0  0  0  0
116122  1  0  0  0  0
116114  2  0  0  0  0
117128  1  0  0  0  0
117131  1  0  0  0  0
117109  1  0  0  0  0
118123  1  0  0  0  0
118113  1  0  0  0  0
119127  1  0  0  0  0
120133  1  0  0  0  0
120105  1  0  0  0  0
121111  1  0  0  0  0
121128  1  0  0  0  0
122118  2  0  0  0  0
123117  1  0  0  0  0
124116  1  0  0  0  0
126120  1  0  0  0  0
127123  1  0  0  0  0
127121  1  0  0  0  0
128125  1  0  0  0  0
129122  1  0  0  0  0
130120  1  0  0  0  0
132121  1  0  0  0  0
134127  1  0  0  0  0
135128  1  0  0  0  0
136137  3  0  0  0  0
137138  1  0  0  0  0
138139  1  0  0  0  0
138142  1  0  0  0  0
139140  3  0  0  0  0
141142  1  0  0  0  0
141175  1  0  0  0  0
142143  2  0  0  0  0
143144  1  0  0  0  0
144170  1  0  0  0  0
145166  1  0  0  0  0
146147  1  0  0  0  0
147152  1  0  0  0  0
147148  1  0  0  0  0
148149  1  0  0  0  0
148153  1  0  0  0  0
150148  1  0  0  0  0
151152  1  0  0  0  0
152154  1  0  0  0  0
153163  1  0  0  0  0
153155  1  0  0  0  0
154153  1  0  0  0  0
154156  1  0  0  0  0
156157  2  0  0  0  0
157158  1  0  0  0  0
157159  1  0  0  0  0
159160  1  0  0  0  0
161152  1  0  0  0  0
162147  1  0  0  0  0
164173  1  0  0  0  0
164165  1  0  0  0  0
168167  1  0  0  0  0
169164  1  0  0  0  0
170145  1  0  0  0  0
170168  1  0  0  0  0
170164  1  0  0  0  0
171145  1  0  0  0  0
172145  1  0  0  0  0
174168  1  0  0  0  0
175144  2  0  0  0  0
175176  1  0  0  0  0
176178  1  0  0  0  0
177176  1  0  0  0  0
177159  2  0  0  0  0
179156  1  0  0  0  0
179177  1  0  0  0  0
180168  1  0  0  0  0
M  END
